
---------- Begin Simulation Statistics ----------
simSeconds                                   0.002526                       # Number of seconds simulated (Second)
simTicks                                   2525580000                       # Number of ticks simulated (Tick)
finalTick                                  2525580000                       # Number of ticks from beginning of simulation (restored from checkpoints and never reset) (Tick)
simFreq                                  1000000000000                       # The number of ticks per simulated second ((Tick/Second))
hostSeconds                                    763.75                       # Real time elapsed on the host (Second)
hostTickRate                                  3306806                       # The number of ticks simulated per host second (ticks/s) ((Tick/Second))
hostMemory                                    1931108                       # Number of bytes of host memory used (Byte)
simInsts                                     92321344                       # Number of instructions simulated (Count)
simOps                                      161277872                       # Number of ops (including micro ops) simulated (Count)
hostInstRate                                   120879                       # Simulator instruction rate (inst/s) ((Count/Second))
hostOpRate                                     211165                       # Simulator op (including micro ops) rate (op/s) ((Count/Second))
system.clk_domain.clock                          1000                       # Clock period in ticks (Tick)
system.cpu0.numCycles                         4655321                       # Number of cpu cycles simulated (Cycle)
system.cpu0.cpi                              0.806803                       # CPI: cycles per instruction (core level) ((Cycle/Count))
system.cpu0.ipc                              1.239460                       # IPC: instructions per cycle (core level) ((Count/Cycle))
system.cpu0.numWorkItemsStarted                     0                       # Number of work items this cpu started (Count)
system.cpu0.numWorkItemsCompleted                   0                       # Number of work items this cpu completed (Count)
system.cpu0.instsAdded                       11172391                       # Number of instructions added to the IQ (excludes non-spec) (Count)
system.cpu0.nonSpecInstsAdded                     444                       # Number of non-speculative instructions added to the IQ (Count)
system.cpu0.instsIssued                      10750227                       # Number of instructions issued (Count)
system.cpu0.squashedInstsIssued                  1665                       # Number of squashed instructions issued (Count)
system.cpu0.squashedInstsExamined             1092968                       # Number of squashed instructions iterated over during squash; mainly for profiling (Count)
system.cpu0.squashedOperandsExamined          2696285                       # Number of squashed operands that are examined and possibly removed from graph (Count)
system.cpu0.squashedNonSpecRemoved                174                       # Number of squashed non-spec instructions that were removed (Count)
system.cpu0.numIssuedDist::samples            4465385                       # Number of insts issued each cycle (Count)
system.cpu0.numIssuedDist::mean              2.407458                       # Number of insts issued each cycle (Count)
system.cpu0.numIssuedDist::stdev             2.495462                       # Number of insts issued each cycle (Count)
system.cpu0.numIssuedDist::underflows               0      0.00%      0.00% # Number of insts issued each cycle (Count)
system.cpu0.numIssuedDist::0                  1570866     35.18%     35.18% # Number of insts issued each cycle (Count)
system.cpu0.numIssuedDist::1                   566227     12.68%     47.86% # Number of insts issued each cycle (Count)
system.cpu0.numIssuedDist::2                   465392     10.42%     58.28% # Number of insts issued each cycle (Count)
system.cpu0.numIssuedDist::3                   443305      9.93%     68.21% # Number of insts issued each cycle (Count)
system.cpu0.numIssuedDist::4                   461947     10.35%     78.55% # Number of insts issued each cycle (Count)
system.cpu0.numIssuedDist::5                   316524      7.09%     85.64% # Number of insts issued each cycle (Count)
system.cpu0.numIssuedDist::6                   237945      5.33%     90.97% # Number of insts issued each cycle (Count)
system.cpu0.numIssuedDist::7                   160209      3.59%     94.56% # Number of insts issued each cycle (Count)
system.cpu0.numIssuedDist::8                   242970      5.44%    100.00% # Number of insts issued each cycle (Count)
system.cpu0.numIssuedDist::overflows                0      0.00%    100.00% # Number of insts issued each cycle (Count)
system.cpu0.numIssuedDist::min_value                0                       # Number of insts issued each cycle (Count)
system.cpu0.numIssuedDist::max_value                8                       # Number of insts issued each cycle (Count)
system.cpu0.numIssuedDist::total              4465385                       # Number of insts issued each cycle (Count)
system.cpu0.statFuBusy::No_OpClass                  0      0.00%      0.00% # attempts to use FU when none available (Count)
system.cpu0.statFuBusy::IntAlu                  39587     39.28%     39.28% # attempts to use FU when none available (Count)
system.cpu0.statFuBusy::IntMult                     0      0.00%     39.28% # attempts to use FU when none available (Count)
system.cpu0.statFuBusy::IntDiv                      0      0.00%     39.28% # attempts to use FU when none available (Count)
system.cpu0.statFuBusy::FloatAdd                 1702      1.69%     40.97% # attempts to use FU when none available (Count)
system.cpu0.statFuBusy::FloatCmp                    0      0.00%     40.97% # attempts to use FU when none available (Count)
system.cpu0.statFuBusy::FloatCvt                    0      0.00%     40.97% # attempts to use FU when none available (Count)
system.cpu0.statFuBusy::FloatMult                   0      0.00%     40.97% # attempts to use FU when none available (Count)
system.cpu0.statFuBusy::FloatMultAcc                0      0.00%     40.97% # attempts to use FU when none available (Count)
system.cpu0.statFuBusy::FloatDiv                    0      0.00%     40.97% # attempts to use FU when none available (Count)
system.cpu0.statFuBusy::FloatMisc                   0      0.00%     40.97% # attempts to use FU when none available (Count)
system.cpu0.statFuBusy::FloatSqrt                   0      0.00%     40.97% # attempts to use FU when none available (Count)
system.cpu0.statFuBusy::SimdAdd                     4      0.00%     40.97% # attempts to use FU when none available (Count)
system.cpu0.statFuBusy::SimdAddAcc                  0      0.00%     40.97% # attempts to use FU when none available (Count)
system.cpu0.statFuBusy::SimdAlu                   169      0.17%     41.14% # attempts to use FU when none available (Count)
system.cpu0.statFuBusy::SimdCmp                     0      0.00%     41.14% # attempts to use FU when none available (Count)
system.cpu0.statFuBusy::SimdCvt                   217      0.22%     41.36% # attempts to use FU when none available (Count)
system.cpu0.statFuBusy::SimdMisc                    0      0.00%     41.36% # attempts to use FU when none available (Count)
system.cpu0.statFuBusy::SimdMult                    0      0.00%     41.36% # attempts to use FU when none available (Count)
system.cpu0.statFuBusy::SimdMultAcc                 0      0.00%     41.36% # attempts to use FU when none available (Count)
system.cpu0.statFuBusy::SimdMatMultAcc              0      0.00%     41.36% # attempts to use FU when none available (Count)
system.cpu0.statFuBusy::SimdShift                 127      0.13%     41.48% # attempts to use FU when none available (Count)
system.cpu0.statFuBusy::SimdShiftAcc                0      0.00%     41.48% # attempts to use FU when none available (Count)
system.cpu0.statFuBusy::SimdDiv                     0      0.00%     41.48% # attempts to use FU when none available (Count)
system.cpu0.statFuBusy::SimdSqrt                    0      0.00%     41.48% # attempts to use FU when none available (Count)
system.cpu0.statFuBusy::SimdFloatAdd                0      0.00%     41.48% # attempts to use FU when none available (Count)
system.cpu0.statFuBusy::SimdFloatAlu                0      0.00%     41.48% # attempts to use FU when none available (Count)
system.cpu0.statFuBusy::SimdFloatCmp                0      0.00%     41.48% # attempts to use FU when none available (Count)
system.cpu0.statFuBusy::SimdFloatCvt                0      0.00%     41.48% # attempts to use FU when none available (Count)
system.cpu0.statFuBusy::SimdFloatDiv                0      0.00%     41.48% # attempts to use FU when none available (Count)
system.cpu0.statFuBusy::SimdFloatMisc               0      0.00%     41.48% # attempts to use FU when none available (Count)
system.cpu0.statFuBusy::SimdFloatMult               2      0.00%     41.48% # attempts to use FU when none available (Count)
system.cpu0.statFuBusy::SimdFloatMultAcc            0      0.00%     41.48% # attempts to use FU when none available (Count)
system.cpu0.statFuBusy::SimdFloatMatMultAcc            0      0.00%     41.48% # attempts to use FU when none available (Count)
system.cpu0.statFuBusy::SimdFloatSqrt               0      0.00%     41.48% # attempts to use FU when none available (Count)
system.cpu0.statFuBusy::SimdReduceAdd               0      0.00%     41.48% # attempts to use FU when none available (Count)
system.cpu0.statFuBusy::SimdReduceAlu               0      0.00%     41.48% # attempts to use FU when none available (Count)
system.cpu0.statFuBusy::SimdReduceCmp               0      0.00%     41.48% # attempts to use FU when none available (Count)
system.cpu0.statFuBusy::SimdFloatReduceAdd            0      0.00%     41.48% # attempts to use FU when none available (Count)
system.cpu0.statFuBusy::SimdFloatReduceCmp            0      0.00%     41.48% # attempts to use FU when none available (Count)
system.cpu0.statFuBusy::SimdAes                     0      0.00%     41.48% # attempts to use FU when none available (Count)
system.cpu0.statFuBusy::SimdAesMix                  0      0.00%     41.48% # attempts to use FU when none available (Count)
system.cpu0.statFuBusy::SimdSha1Hash                0      0.00%     41.48% # attempts to use FU when none available (Count)
system.cpu0.statFuBusy::SimdSha1Hash2               0      0.00%     41.48% # attempts to use FU when none available (Count)
system.cpu0.statFuBusy::SimdSha256Hash              0      0.00%     41.48% # attempts to use FU when none available (Count)
system.cpu0.statFuBusy::SimdSha256Hash2             0      0.00%     41.48% # attempts to use FU when none available (Count)
system.cpu0.statFuBusy::SimdShaSigma2               0      0.00%     41.48% # attempts to use FU when none available (Count)
system.cpu0.statFuBusy::SimdShaSigma3               0      0.00%     41.48% # attempts to use FU when none available (Count)
system.cpu0.statFuBusy::SimdPredAlu                 0      0.00%     41.48% # attempts to use FU when none available (Count)
system.cpu0.statFuBusy::Matrix                      0      0.00%     41.48% # attempts to use FU when none available (Count)
system.cpu0.statFuBusy::MatrixMov                   0      0.00%     41.48% # attempts to use FU when none available (Count)
system.cpu0.statFuBusy::MatrixOP                    0      0.00%     41.48% # attempts to use FU when none available (Count)
system.cpu0.statFuBusy::MemRead                 29970     29.74%     71.22% # attempts to use FU when none available (Count)
system.cpu0.statFuBusy::MemWrite                10675     10.59%     81.81% # attempts to use FU when none available (Count)
system.cpu0.statFuBusy::FloatMemRead            18065     17.92%     99.74% # attempts to use FU when none available (Count)
system.cpu0.statFuBusy::FloatMemWrite             265      0.26%    100.00% # attempts to use FU when none available (Count)
system.cpu0.statFuBusy::IprAccess                   0      0.00%    100.00% # attempts to use FU when none available (Count)
system.cpu0.statFuBusy::InstPrefetch                0      0.00%    100.00% # attempts to use FU when none available (Count)
system.cpu0.statFuBusy::VectorUnitStrideLoad            0      0.00%    100.00% # attempts to use FU when none available (Count)
system.cpu0.statFuBusy::VectorUnitStrideStore            0      0.00%    100.00% # attempts to use FU when none available (Count)
system.cpu0.statFuBusy::VectorUnitStrideMaskLoad            0      0.00%    100.00% # attempts to use FU when none available (Count)
system.cpu0.statFuBusy::VectorUnitStrideMaskStore            0      0.00%    100.00% # attempts to use FU when none available (Count)
system.cpu0.statFuBusy::VectorStridedLoad            0      0.00%    100.00% # attempts to use FU when none available (Count)
system.cpu0.statFuBusy::VectorStridedStore            0      0.00%    100.00% # attempts to use FU when none available (Count)
system.cpu0.statFuBusy::VectorIndexedLoad            0      0.00%    100.00% # attempts to use FU when none available (Count)
system.cpu0.statFuBusy::VectorIndexedStore            0      0.00%    100.00% # attempts to use FU when none available (Count)
system.cpu0.statFuBusy::VectorUnitStrideFaultOnlyFirstLoad            0      0.00%    100.00% # attempts to use FU when none available (Count)
system.cpu0.statFuBusy::VectorWholeRegisterLoad            0      0.00%    100.00% # attempts to use FU when none available (Count)
system.cpu0.statFuBusy::VectorWholeRegisterStore            0      0.00%    100.00% # attempts to use FU when none available (Count)
system.cpu0.statFuBusy::VectorIntegerArith            0      0.00%    100.00% # attempts to use FU when none available (Count)
system.cpu0.statFuBusy::VectorFloatArith            0      0.00%    100.00% # attempts to use FU when none available (Count)
system.cpu0.statFuBusy::VectorFloatConvert            0      0.00%    100.00% # attempts to use FU when none available (Count)
system.cpu0.statFuBusy::VectorIntegerReduce            0      0.00%    100.00% # attempts to use FU when none available (Count)
system.cpu0.statFuBusy::VectorFloatReduce            0      0.00%    100.00% # attempts to use FU when none available (Count)
system.cpu0.statFuBusy::VectorMisc                  0      0.00%    100.00% # attempts to use FU when none available (Count)
system.cpu0.statFuBusy::VectorIntegerExtension            0      0.00%    100.00% # attempts to use FU when none available (Count)
system.cpu0.statFuBusy::VectorConfig                0      0.00%    100.00% # attempts to use FU when none available (Count)
system.cpu0.statIssuedInstType_0::No_OpClass        38135      0.35%      0.35% # Number of instructions issued per FU type, per thread (Count)
system.cpu0.statIssuedInstType_0::IntAlu      6155563     57.26%     57.61% # Number of instructions issued per FU type, per thread (Count)
system.cpu0.statIssuedInstType_0::IntMult         4156      0.04%     57.65% # Number of instructions issued per FU type, per thread (Count)
system.cpu0.statIssuedInstType_0::IntDiv        36914      0.34%     58.00% # Number of instructions issued per FU type, per thread (Count)
system.cpu0.statIssuedInstType_0::FloatAdd       785604      7.31%     65.30% # Number of instructions issued per FU type, per thread (Count)
system.cpu0.statIssuedInstType_0::FloatCmp            0      0.00%     65.30% # Number of instructions issued per FU type, per thread (Count)
system.cpu0.statIssuedInstType_0::FloatCvt          180      0.00%     65.31% # Number of instructions issued per FU type, per thread (Count)
system.cpu0.statIssuedInstType_0::FloatMult            0      0.00%     65.31% # Number of instructions issued per FU type, per thread (Count)
system.cpu0.statIssuedInstType_0::FloatMultAcc            0      0.00%     65.31% # Number of instructions issued per FU type, per thread (Count)
system.cpu0.statIssuedInstType_0::FloatDiv            0      0.00%     65.31% # Number of instructions issued per FU type, per thread (Count)
system.cpu0.statIssuedInstType_0::FloatMisc            0      0.00%     65.31% # Number of instructions issued per FU type, per thread (Count)
system.cpu0.statIssuedInstType_0::FloatSqrt            0      0.00%     65.31% # Number of instructions issued per FU type, per thread (Count)
system.cpu0.statIssuedInstType_0::SimdAdd         6190      0.06%     65.36% # Number of instructions issued per FU type, per thread (Count)
system.cpu0.statIssuedInstType_0::SimdAddAcc            0      0.00%     65.36% # Number of instructions issued per FU type, per thread (Count)
system.cpu0.statIssuedInstType_0::SimdAlu       316523      2.94%     68.31% # Number of instructions issued per FU type, per thread (Count)
system.cpu0.statIssuedInstType_0::SimdCmp            0      0.00%     68.31% # Number of instructions issued per FU type, per thread (Count)
system.cpu0.statIssuedInstType_0::SimdCvt        13223      0.12%     68.43% # Number of instructions issued per FU type, per thread (Count)
system.cpu0.statIssuedInstType_0::SimdMisc        66377      0.62%     69.05% # Number of instructions issued per FU type, per thread (Count)
system.cpu0.statIssuedInstType_0::SimdMult            0      0.00%     69.05% # Number of instructions issued per FU type, per thread (Count)
system.cpu0.statIssuedInstType_0::SimdMultAcc            0      0.00%     69.05% # Number of instructions issued per FU type, per thread (Count)
system.cpu0.statIssuedInstType_0::SimdMatMultAcc            0      0.00%     69.05% # Number of instructions issued per FU type, per thread (Count)
system.cpu0.statIssuedInstType_0::SimdShift         1233      0.01%     69.06% # Number of instructions issued per FU type, per thread (Count)
system.cpu0.statIssuedInstType_0::SimdShiftAcc            0      0.00%     69.06% # Number of instructions issued per FU type, per thread (Count)
system.cpu0.statIssuedInstType_0::SimdDiv            0      0.00%     69.06% # Number of instructions issued per FU type, per thread (Count)
system.cpu0.statIssuedInstType_0::SimdSqrt            0      0.00%     69.06% # Number of instructions issued per FU type, per thread (Count)
system.cpu0.statIssuedInstType_0::SimdFloatAdd       351177      3.27%     72.33% # Number of instructions issued per FU type, per thread (Count)
system.cpu0.statIssuedInstType_0::SimdFloatAlu            0      0.00%     72.33% # Number of instructions issued per FU type, per thread (Count)
system.cpu0.statIssuedInstType_0::SimdFloatCmp            0      0.00%     72.33% # Number of instructions issued per FU type, per thread (Count)
system.cpu0.statIssuedInstType_0::SimdFloatCvt        95979      0.89%     73.22% # Number of instructions issued per FU type, per thread (Count)
system.cpu0.statIssuedInstType_0::SimdFloatDiv        22529      0.21%     73.43% # Number of instructions issued per FU type, per thread (Count)
system.cpu0.statIssuedInstType_0::SimdFloatMisc            0      0.00%     73.43% # Number of instructions issued per FU type, per thread (Count)
system.cpu0.statIssuedInstType_0::SimdFloatMult       320158      2.98%     76.41% # Number of instructions issued per FU type, per thread (Count)
system.cpu0.statIssuedInstType_0::SimdFloatMultAcc            0      0.00%     76.41% # Number of instructions issued per FU type, per thread (Count)
system.cpu0.statIssuedInstType_0::SimdFloatMatMultAcc            0      0.00%     76.41% # Number of instructions issued per FU type, per thread (Count)
system.cpu0.statIssuedInstType_0::SimdFloatSqrt            0      0.00%     76.41% # Number of instructions issued per FU type, per thread (Count)
system.cpu0.statIssuedInstType_0::SimdReduceAdd            0      0.00%     76.41% # Number of instructions issued per FU type, per thread (Count)
system.cpu0.statIssuedInstType_0::SimdReduceAlu            0      0.00%     76.41% # Number of instructions issued per FU type, per thread (Count)
system.cpu0.statIssuedInstType_0::SimdReduceCmp            0      0.00%     76.41% # Number of instructions issued per FU type, per thread (Count)
system.cpu0.statIssuedInstType_0::SimdFloatReduceAdd            0      0.00%     76.41% # Number of instructions issued per FU type, per thread (Count)
system.cpu0.statIssuedInstType_0::SimdFloatReduceCmp            0      0.00%     76.41% # Number of instructions issued per FU type, per thread (Count)
system.cpu0.statIssuedInstType_0::SimdAes            0      0.00%     76.41% # Number of instructions issued per FU type, per thread (Count)
system.cpu0.statIssuedInstType_0::SimdAesMix            0      0.00%     76.41% # Number of instructions issued per FU type, per thread (Count)
system.cpu0.statIssuedInstType_0::SimdSha1Hash            0      0.00%     76.41% # Number of instructions issued per FU type, per thread (Count)
system.cpu0.statIssuedInstType_0::SimdSha1Hash2            0      0.00%     76.41% # Number of instructions issued per FU type, per thread (Count)
system.cpu0.statIssuedInstType_0::SimdSha256Hash            0      0.00%     76.41% # Number of instructions issued per FU type, per thread (Count)
system.cpu0.statIssuedInstType_0::SimdSha256Hash2            0      0.00%     76.41% # Number of instructions issued per FU type, per thread (Count)
system.cpu0.statIssuedInstType_0::SimdShaSigma2            0      0.00%     76.41% # Number of instructions issued per FU type, per thread (Count)
system.cpu0.statIssuedInstType_0::SimdShaSigma3            0      0.00%     76.41% # Number of instructions issued per FU type, per thread (Count)
system.cpu0.statIssuedInstType_0::SimdPredAlu            0      0.00%     76.41% # Number of instructions issued per FU type, per thread (Count)
system.cpu0.statIssuedInstType_0::Matrix            0      0.00%     76.41% # Number of instructions issued per FU type, per thread (Count)
system.cpu0.statIssuedInstType_0::MatrixMov            0      0.00%     76.41% # Number of instructions issued per FU type, per thread (Count)
system.cpu0.statIssuedInstType_0::MatrixOP            0      0.00%     76.41% # Number of instructions issued per FU type, per thread (Count)
system.cpu0.statIssuedInstType_0::MemRead      1150674     10.70%     87.11% # Number of instructions issued per FU type, per thread (Count)
system.cpu0.statIssuedInstType_0::MemWrite       509801      4.74%     91.85% # Number of instructions issued per FU type, per thread (Count)
system.cpu0.statIssuedInstType_0::FloatMemRead       711611      6.62%     98.47% # Number of instructions issued per FU type, per thread (Count)
system.cpu0.statIssuedInstType_0::FloatMemWrite       164200      1.53%    100.00% # Number of instructions issued per FU type, per thread (Count)
system.cpu0.statIssuedInstType_0::IprAccess            0      0.00%    100.00% # Number of instructions issued per FU type, per thread (Count)
system.cpu0.statIssuedInstType_0::InstPrefetch            0      0.00%    100.00% # Number of instructions issued per FU type, per thread (Count)
system.cpu0.statIssuedInstType_0::VectorUnitStrideLoad            0      0.00%    100.00% # Number of instructions issued per FU type, per thread (Count)
system.cpu0.statIssuedInstType_0::VectorUnitStrideStore            0      0.00%    100.00% # Number of instructions issued per FU type, per thread (Count)
system.cpu0.statIssuedInstType_0::VectorUnitStrideMaskLoad            0      0.00%    100.00% # Number of instructions issued per FU type, per thread (Count)
system.cpu0.statIssuedInstType_0::VectorUnitStrideMaskStore            0      0.00%    100.00% # Number of instructions issued per FU type, per thread (Count)
system.cpu0.statIssuedInstType_0::VectorStridedLoad            0      0.00%    100.00% # Number of instructions issued per FU type, per thread (Count)
system.cpu0.statIssuedInstType_0::VectorStridedStore            0      0.00%    100.00% # Number of instructions issued per FU type, per thread (Count)
system.cpu0.statIssuedInstType_0::VectorIndexedLoad            0      0.00%    100.00% # Number of instructions issued per FU type, per thread (Count)
system.cpu0.statIssuedInstType_0::VectorIndexedStore            0      0.00%    100.00% # Number of instructions issued per FU type, per thread (Count)
system.cpu0.statIssuedInstType_0::VectorUnitStrideFaultOnlyFirstLoad            0      0.00%    100.00% # Number of instructions issued per FU type, per thread (Count)
system.cpu0.statIssuedInstType_0::VectorWholeRegisterLoad            0      0.00%    100.00% # Number of instructions issued per FU type, per thread (Count)
system.cpu0.statIssuedInstType_0::VectorWholeRegisterStore            0      0.00%    100.00% # Number of instructions issued per FU type, per thread (Count)
system.cpu0.statIssuedInstType_0::VectorIntegerArith            0      0.00%    100.00% # Number of instructions issued per FU type, per thread (Count)
system.cpu0.statIssuedInstType_0::VectorFloatArith            0      0.00%    100.00% # Number of instructions issued per FU type, per thread (Count)
system.cpu0.statIssuedInstType_0::VectorFloatConvert            0      0.00%    100.00% # Number of instructions issued per FU type, per thread (Count)
system.cpu0.statIssuedInstType_0::VectorIntegerReduce            0      0.00%    100.00% # Number of instructions issued per FU type, per thread (Count)
system.cpu0.statIssuedInstType_0::VectorFloatReduce            0      0.00%    100.00% # Number of instructions issued per FU type, per thread (Count)
system.cpu0.statIssuedInstType_0::VectorMisc            0      0.00%    100.00% # Number of instructions issued per FU type, per thread (Count)
system.cpu0.statIssuedInstType_0::VectorIntegerExtension            0      0.00%    100.00% # Number of instructions issued per FU type, per thread (Count)
system.cpu0.statIssuedInstType_0::VectorConfig            0      0.00%    100.00% # Number of instructions issued per FU type, per thread (Count)
system.cpu0.statIssuedInstType_0::total      10750227                       # Number of instructions issued per FU type, per thread (Count)
system.cpu0.issueRate                        2.309234                       # Inst issue rate ((Count/Cycle))
system.cpu0.fuBusy                             100783                       # FU busy when requested (Count)
system.cpu0.fuBusyRate                       0.009375                       # FU busy rate (busy events/executed inst) ((Count/Count))
system.cpu0.intInstQueueReads                19705548                       # Number of integer instruction queue reads (Count)
system.cpu0.intInstQueueWrites                9023778                       # Number of integer instruction queue writes (Count)
system.cpu0.intInstQueueWakeupAccesses        7507682                       # Number of integer instruction queue wakeup accesses (Count)
system.cpu0.fpInstQueueReads                  6362739                       # Number of floating instruction queue reads (Count)
system.cpu0.fpInstQueueWrites                 3242375                       # Number of floating instruction queue writes (Count)
system.cpu0.fpInstQueueWakeupAccesses         3133549                       # Number of floating instruction queue wakeup accesses (Count)
system.cpu0.vecInstQueueReads                       0                       # Number of vector instruction queue reads (Count)
system.cpu0.vecInstQueueWrites                      0                       # Number of vector instruction queue writes (Count)
system.cpu0.vecInstQueueWakeupAccesses              0                       # Number of vector instruction queue wakeup accesses (Count)
system.cpu0.intAluAccesses                    7621354                       # Number of integer alu accesses (Count)
system.cpu0.fpAluAccesses                     3191521                       # Number of floating point alu accesses (Count)
system.cpu0.vecAluAccesses                          0                       # Number of vector alu accesses (Count)
system.cpu0.numSquashedInsts                    25407                       # Number of squashed instructions skipped in execute (Count)
system.cpu0.numSwp                                  0                       # Number of swp insts executed (Count)
system.cpu0.timesIdled                           1544                       # Number of times that the entire CPU went into an idle state and unscheduled itself (Count)
system.cpu0.idleCycles                         189936                       # Total number of cycles that the CPU has spent unscheduled due to idling (Cycle)
system.cpu0.MemDepUnit__0.insertedLoads       1856412                       # Number of loads inserted to the mem dependence unit. (Count)
system.cpu0.MemDepUnit__0.insertedStores       703930                       # Number of stores inserted to the mem dependence unit. (Count)
system.cpu0.MemDepUnit__0.conflictingLoads       523920                       # Number of conflicting loads. (Count)
system.cpu0.MemDepUnit__0.conflictingStores       160742                       # Number of conflicting stores. (Count)
system.cpu0.MemDepUnit__1.insertedLoads             0                       # Number of loads inserted to the mem dependence unit. (Count)
system.cpu0.MemDepUnit__1.insertedStores            0                       # Number of stores inserted to the mem dependence unit. (Count)
system.cpu0.MemDepUnit__1.conflictingLoads            0                       # Number of conflicting loads. (Count)
system.cpu0.MemDepUnit__1.conflictingStores            0                       # Number of conflicting stores. (Count)
system.cpu0.MemDepUnit__2.insertedLoads             0                       # Number of loads inserted to the mem dependence unit. (Count)
system.cpu0.MemDepUnit__2.insertedStores            0                       # Number of stores inserted to the mem dependence unit. (Count)
system.cpu0.MemDepUnit__2.conflictingLoads            0                       # Number of conflicting loads. (Count)
system.cpu0.MemDepUnit__2.conflictingStores            0                       # Number of conflicting stores. (Count)
system.cpu0.MemDepUnit__3.insertedLoads             0                       # Number of loads inserted to the mem dependence unit. (Count)
system.cpu0.MemDepUnit__3.insertedStores            0                       # Number of stores inserted to the mem dependence unit. (Count)
system.cpu0.MemDepUnit__3.conflictingLoads            0                       # Number of conflicting loads. (Count)
system.cpu0.MemDepUnit__3.conflictingStores            0                       # Number of conflicting stores. (Count)
system.cpu0.branchPred.lookups_0::NoBranch          643      0.08%      0.08% # Number of BP lookups (Count)
system.cpu0.branchPred.lookups_0::Return        37217      4.72%      4.80% # Number of BP lookups (Count)
system.cpu0.branchPred.lookups_0::CallDirect        40955      5.20%     10.00% # Number of BP lookups (Count)
system.cpu0.branchPred.lookups_0::CallIndirect         1058      0.13%     10.14% # Number of BP lookups (Count)
system.cpu0.branchPred.lookups_0::DirectCond       586247     74.40%     84.53% # Number of BP lookups (Count)
system.cpu0.branchPred.lookups_0::DirectUncond        94299     11.97%     96.50% # Number of BP lookups (Count)
system.cpu0.branchPred.lookups_0::IndirectCond            0      0.00%     96.50% # Number of BP lookups (Count)
system.cpu0.branchPred.lookups_0::IndirectUncond        27566      3.50%    100.00% # Number of BP lookups (Count)
system.cpu0.branchPred.lookups_0::total        787985                       # Number of BP lookups (Count)
system.cpu0.branchPred.squashes_0::NoBranch          594      0.47%      0.47% # Number of branches that got squashed (completely removed) as an earlier branch was mispredicted. (Count)
system.cpu0.branchPred.squashes_0::Return         2802      2.20%      2.67% # Number of branches that got squashed (completely removed) as an earlier branch was mispredicted. (Count)
system.cpu0.branchPred.squashes_0::CallDirect         6956      5.46%      8.13% # Number of branches that got squashed (completely removed) as an earlier branch was mispredicted. (Count)
system.cpu0.branchPred.squashes_0::CallIndirect          637      0.50%      8.63% # Number of branches that got squashed (completely removed) as an earlier branch was mispredicted. (Count)
system.cpu0.branchPred.squashes_0::DirectCond       100937     79.28%     87.91% # Number of branches that got squashed (completely removed) as an earlier branch was mispredicted. (Count)
system.cpu0.branchPred.squashes_0::DirectUncond        14043     11.03%     98.94% # Number of branches that got squashed (completely removed) as an earlier branch was mispredicted. (Count)
system.cpu0.branchPred.squashes_0::IndirectCond            0      0.00%     98.94% # Number of branches that got squashed (completely removed) as an earlier branch was mispredicted. (Count)
system.cpu0.branchPred.squashes_0::IndirectUncond         1345      1.06%    100.00% # Number of branches that got squashed (completely removed) as an earlier branch was mispredicted. (Count)
system.cpu0.branchPred.squashes_0::total       127314                       # Number of branches that got squashed (completely removed) as an earlier branch was mispredicted. (Count)
system.cpu0.branchPred.corrected_0::NoBranch          122      0.84%      0.84% # Number of branches that got corrected but not yet commited. Branches get corrected by decode or after execute. Also a branch misprediction can be detected out-of-order. Therefore, a corrected branch might not end up beeing committed in case an even earlier branch was mispredicted (Count)
system.cpu0.branchPred.corrected_0::Return           14      0.10%      0.94% # Number of branches that got corrected but not yet commited. Branches get corrected by decode or after execute. Also a branch misprediction can be detected out-of-order. Therefore, a corrected branch might not end up beeing committed in case an even earlier branch was mispredicted (Count)
system.cpu0.branchPred.corrected_0::CallDirect          333      2.29%      3.23% # Number of branches that got corrected but not yet commited. Branches get corrected by decode or after execute. Also a branch misprediction can be detected out-of-order. Therefore, a corrected branch might not end up beeing committed in case an even earlier branch was mispredicted (Count)
system.cpu0.branchPred.corrected_0::CallIndirect          220      1.51%      4.74% # Number of branches that got corrected but not yet commited. Branches get corrected by decode or after execute. Also a branch misprediction can be detected out-of-order. Therefore, a corrected branch might not end up beeing committed in case an even earlier branch was mispredicted (Count)
system.cpu0.branchPred.corrected_0::DirectCond        13103     90.17%     94.91% # Number of branches that got corrected but not yet commited. Branches get corrected by decode or after execute. Also a branch misprediction can be detected out-of-order. Therefore, a corrected branch might not end up beeing committed in case an even earlier branch was mispredicted (Count)
system.cpu0.branchPred.corrected_0::DirectUncond          393      2.70%     97.62% # Number of branches that got corrected but not yet commited. Branches get corrected by decode or after execute. Also a branch misprediction can be detected out-of-order. Therefore, a corrected branch might not end up beeing committed in case an even earlier branch was mispredicted (Count)
system.cpu0.branchPred.corrected_0::IndirectCond            0      0.00%     97.62% # Number of branches that got corrected but not yet commited. Branches get corrected by decode or after execute. Also a branch misprediction can be detected out-of-order. Therefore, a corrected branch might not end up beeing committed in case an even earlier branch was mispredicted (Count)
system.cpu0.branchPred.corrected_0::IndirectUncond          346      2.38%    100.00% # Number of branches that got corrected but not yet commited. Branches get corrected by decode or after execute. Also a branch misprediction can be detected out-of-order. Therefore, a corrected branch might not end up beeing committed in case an even earlier branch was mispredicted (Count)
system.cpu0.branchPred.corrected_0::total        14531                       # Number of branches that got corrected but not yet commited. Branches get corrected by decode or after execute. Also a branch misprediction can be detected out-of-order. Therefore, a corrected branch might not end up beeing committed in case an even earlier branch was mispredicted (Count)
system.cpu0.branchPred.earlyResteers_0::NoBranch            0                       # Number of branches that got redirected after decode. (Count)
system.cpu0.branchPred.earlyResteers_0::Return            0                       # Number of branches that got redirected after decode. (Count)
system.cpu0.branchPred.earlyResteers_0::CallDirect            0                       # Number of branches that got redirected after decode. (Count)
system.cpu0.branchPred.earlyResteers_0::CallIndirect            0                       # Number of branches that got redirected after decode. (Count)
system.cpu0.branchPred.earlyResteers_0::DirectCond            0                       # Number of branches that got redirected after decode. (Count)
system.cpu0.branchPred.earlyResteers_0::DirectUncond            0                       # Number of branches that got redirected after decode. (Count)
system.cpu0.branchPred.earlyResteers_0::IndirectCond            0                       # Number of branches that got redirected after decode. (Count)
system.cpu0.branchPred.earlyResteers_0::IndirectUncond            0                       # Number of branches that got redirected after decode. (Count)
system.cpu0.branchPred.earlyResteers_0::total            0                       # Number of branches that got redirected after decode. (Count)
system.cpu0.branchPred.committed_0::NoBranch           49      0.01%      0.01% # Number of branches finally committed  (Count)
system.cpu0.branchPred.committed_0::Return        34415      5.21%      5.22% # Number of branches finally committed  (Count)
system.cpu0.branchPred.committed_0::CallDirect        33999      5.15%     10.36% # Number of branches finally committed  (Count)
system.cpu0.branchPred.committed_0::CallIndirect          421      0.06%     10.43% # Number of branches finally committed  (Count)
system.cpu0.branchPred.committed_0::DirectCond       485310     73.46%     83.88% # Number of branches finally committed  (Count)
system.cpu0.branchPred.committed_0::DirectUncond        80256     12.15%     96.03% # Number of branches finally committed  (Count)
system.cpu0.branchPred.committed_0::IndirectCond            0      0.00%     96.03% # Number of branches finally committed  (Count)
system.cpu0.branchPred.committed_0::IndirectUncond        26221      3.97%    100.00% # Number of branches finally committed  (Count)
system.cpu0.branchPred.committed_0::total       660671                       # Number of branches finally committed  (Count)
system.cpu0.branchPred.mispredicted_0::NoBranch           49      0.36%      0.36% # Number of committed branches that were mispredicted. (Count)
system.cpu0.branchPred.mispredicted_0::Return            0      0.00%      0.36% # Number of committed branches that were mispredicted. (Count)
system.cpu0.branchPred.mispredicted_0::CallDirect          171      1.27%      1.63% # Number of committed branches that were mispredicted. (Count)
system.cpu0.branchPred.mispredicted_0::CallIndirect          190      1.41%      3.04% # Number of committed branches that were mispredicted. (Count)
system.cpu0.branchPred.mispredicted_0::DirectCond        12555     93.15%     96.19% # Number of committed branches that were mispredicted. (Count)
system.cpu0.branchPred.mispredicted_0::DirectUncond          191      1.42%     97.61% # Number of committed branches that were mispredicted. (Count)
system.cpu0.branchPred.mispredicted_0::IndirectCond            0      0.00%     97.61% # Number of committed branches that were mispredicted. (Count)
system.cpu0.branchPred.mispredicted_0::IndirectUncond          322      2.39%    100.00% # Number of committed branches that were mispredicted. (Count)
system.cpu0.branchPred.mispredicted_0::total        13478                       # Number of committed branches that were mispredicted. (Count)
system.cpu0.branchPred.targetProvider_0::NoTarget       346552     43.98%     43.98% # The component providing the target for taken branches (Count)
system.cpu0.branchPred.targetProvider_0::BTB       377339     47.89%     91.87% # The component providing the target for taken branches (Count)
system.cpu0.branchPred.targetProvider_0::RAS        37216      4.72%     96.59% # The component providing the target for taken branches (Count)
system.cpu0.branchPred.targetProvider_0::Indirect        26878      3.41%    100.00% # The component providing the target for taken branches (Count)
system.cpu0.branchPred.targetProvider_0::total       787985                       # The component providing the target for taken branches (Count)
system.cpu0.branchPred.targetWrong_0::NoBranch         8242     63.09%     63.09% # Number of branches where the target was incorrect or not available at prediction time. (Count)
system.cpu0.branchPred.targetWrong_0::Return         4765     36.47%     99.56% # Number of branches where the target was incorrect or not available at prediction time. (Count)
system.cpu0.branchPred.targetWrong_0::CallDirect           14      0.11%     99.67% # Number of branches where the target was incorrect or not available at prediction time. (Count)
system.cpu0.branchPred.targetWrong_0::CallIndirect           43      0.33%    100.00% # Number of branches where the target was incorrect or not available at prediction time. (Count)
system.cpu0.branchPred.targetWrong_0::DirectCond            0      0.00%    100.00% # Number of branches where the target was incorrect or not available at prediction time. (Count)
system.cpu0.branchPred.targetWrong_0::DirectUncond            0      0.00%    100.00% # Number of branches where the target was incorrect or not available at prediction time. (Count)
system.cpu0.branchPred.targetWrong_0::IndirectCond            0      0.00%    100.00% # Number of branches where the target was incorrect or not available at prediction time. (Count)
system.cpu0.branchPred.targetWrong_0::IndirectUncond            0      0.00%    100.00% # Number of branches where the target was incorrect or not available at prediction time. (Count)
system.cpu0.branchPred.targetWrong_0::total        13064                       # Number of branches where the target was incorrect or not available at prediction time. (Count)
system.cpu0.branchPred.condPredicted           586890                       # Number of conditional branches predicted (Count)
system.cpu0.branchPred.condPredictedTaken       244770                       # Number of conditional branches predicted as taken (Count)
system.cpu0.branchPred.condIncorrect            14531                       # Number of conditional branches incorrect (Count)
system.cpu0.branchPred.predTakenBTBMiss           936                       # Number of branches predicted taken but missed in BTB (Count)
system.cpu0.branchPred.NotTakenMispredicted         9185                       # Number branches predicted 'not taken' but turned out to be taken (Count)
system.cpu0.branchPred.TakenMispredicted         5346                       # Number branches predicted taken but are actually not taken (Count)
system.cpu0.branchPred.BTBLookups              787985                       # Number of BTB lookups (Count)
system.cpu0.branchPred.BTBUpdates                8483                       # Number of BTB updates (Count)
system.cpu0.branchPred.BTBHits                 521604                       # Number of BTB hits (Count)
system.cpu0.branchPred.BTBHitRatio           0.661947                       # BTB Hit Ratio (Ratio)
system.cpu0.branchPred.BTBMispredicted           1560                       # Number BTB mispredictions. No target found or target wrong (Count)
system.cpu0.branchPred.indirectLookups          28624                       # Number of indirect predictor lookups. (Count)
system.cpu0.branchPred.indirectHits             26878                       # Number of indirect target hits. (Count)
system.cpu0.branchPred.indirectMisses            1746                       # Number of indirect misses. (Count)
system.cpu0.branchPred.indirectMispredicted            0                       # Number of mispredicted indirect branches. (Count)
system.cpu0.branchPred.btb.lookups::NoBranch          643      0.08%      0.08% # Number of BTB lookups (Count)
system.cpu0.branchPred.btb.lookups::Return        37217      4.72%      4.80% # Number of BTB lookups (Count)
system.cpu0.branchPred.btb.lookups::CallDirect        40955      5.20%     10.00% # Number of BTB lookups (Count)
system.cpu0.branchPred.btb.lookups::CallIndirect         1058      0.13%     10.14% # Number of BTB lookups (Count)
system.cpu0.branchPred.btb.lookups::DirectCond       586247     74.40%     84.53% # Number of BTB lookups (Count)
system.cpu0.branchPred.btb.lookups::DirectUncond        94299     11.97%     96.50% # Number of BTB lookups (Count)
system.cpu0.branchPred.btb.lookups::IndirectCond            0      0.00%     96.50% # Number of BTB lookups (Count)
system.cpu0.branchPred.btb.lookups::IndirectUncond        27566      3.50%    100.00% # Number of BTB lookups (Count)
system.cpu0.branchPred.btb.lookups::total       787985                       # Number of BTB lookups (Count)
system.cpu0.branchPred.btb.misses::NoBranch          203      0.08%      0.08% # Number of BTB misses (Count)
system.cpu0.branchPred.btb.misses::Return        37217     13.97%     14.05% # Number of BTB misses (Count)
system.cpu0.branchPred.btb.misses::CallDirect          521      0.20%     14.24% # Number of BTB misses (Count)
system.cpu0.branchPred.btb.misses::CallIndirect         1058      0.40%     14.64% # Number of BTB misses (Count)
system.cpu0.branchPred.btb.misses::DirectCond       199310     74.82%     89.46% # Number of BTB misses (Count)
system.cpu0.branchPred.btb.misses::DirectUncond          506      0.19%     89.65% # Number of BTB misses (Count)
system.cpu0.branchPred.btb.misses::IndirectCond            0      0.00%     89.65% # Number of BTB misses (Count)
system.cpu0.branchPred.btb.misses::IndirectUncond        27566     10.35%    100.00% # Number of BTB misses (Count)
system.cpu0.branchPred.btb.misses::total       266381                       # Number of BTB misses (Count)
system.cpu0.branchPred.btb.updates::NoBranch            0      0.00%      0.00% # Number of BTB updates (Count)
system.cpu0.branchPred.btb.updates::Return            0      0.00%      0.00% # Number of BTB updates (Count)
system.cpu0.branchPred.btb.updates::CallDirect          333      3.93%      3.93% # Number of BTB updates (Count)
system.cpu0.branchPred.btb.updates::CallIndirect            0      0.00%      3.93% # Number of BTB updates (Count)
system.cpu0.branchPred.btb.updates::DirectCond         7757     91.44%     95.37% # Number of BTB updates (Count)
system.cpu0.branchPred.btb.updates::DirectUncond          393      4.63%    100.00% # Number of BTB updates (Count)
system.cpu0.branchPred.btb.updates::IndirectCond            0      0.00%    100.00% # Number of BTB updates (Count)
system.cpu0.branchPred.btb.updates::IndirectUncond            0      0.00%    100.00% # Number of BTB updates (Count)
system.cpu0.branchPred.btb.updates::total         8483                       # Number of BTB updates (Count)
system.cpu0.branchPred.btb.mispredict::NoBranch            0      0.00%      0.00% # Number of BTB mispredictions. No target found or target wrong. (Count)
system.cpu0.branchPred.btb.mispredict::Return            0      0.00%      0.00% # Number of BTB mispredictions. No target found or target wrong. (Count)
system.cpu0.branchPred.btb.mispredict::CallDirect          333      3.93%      3.93% # Number of BTB mispredictions. No target found or target wrong. (Count)
system.cpu0.branchPred.btb.mispredict::CallIndirect            0      0.00%      3.93% # Number of BTB mispredictions. No target found or target wrong. (Count)
system.cpu0.branchPred.btb.mispredict::DirectCond         7757     91.44%     95.37% # Number of BTB mispredictions. No target found or target wrong. (Count)
system.cpu0.branchPred.btb.mispredict::DirectUncond          393      4.63%    100.00% # Number of BTB mispredictions. No target found or target wrong. (Count)
system.cpu0.branchPred.btb.mispredict::IndirectCond            0      0.00%    100.00% # Number of BTB mispredictions. No target found or target wrong. (Count)
system.cpu0.branchPred.btb.mispredict::IndirectUncond            0      0.00%    100.00% # Number of BTB mispredictions. No target found or target wrong. (Count)
system.cpu0.branchPred.btb.mispredict::total         8483                       # Number of BTB mispredictions. No target found or target wrong. (Count)
system.cpu0.branchPred.btb.power_state.pwrStateResidencyTicks::UNDEFINED   2525580000                       # Cumulative time (in ticks) in various power states (Tick)
system.cpu0.branchPred.indirectBranchPred.lookups        28624                       # Number of lookups (Count)
system.cpu0.branchPred.indirectBranchPred.hits        26878                       # Number of hits of a tag (Count)
system.cpu0.branchPred.indirectBranchPred.misses         1746                       # Number of misses (Count)
system.cpu0.branchPred.indirectBranchPred.targetRecords          566                       # Number of targets that where recorded/installed in the cache (Count)
system.cpu0.branchPred.indirectBranchPred.indirectRecords        29190                       # Number of indirect branches/calls recorded in the indirect hist (Count)
system.cpu0.branchPred.indirectBranchPred.speculativeOverflows            1                       # Number of times more than the allowed capacity for speculative branches/calls where in flight and destroy the path history (Count)
system.cpu0.branchPred.ras.pushes               44815                       # Number of times a PC was pushed onto the RAS (Count)
system.cpu0.branchPred.ras.pops                 44810                       # Number of times a PC was poped from the RAS (Count)
system.cpu0.branchPred.ras.squashes             10395                       # Number of times the stack operation was squashed due to wrong speculation. (Count)
system.cpu0.branchPred.ras.used                 34415                       # Number of times the RAS is the provider (Count)
system.cpu0.branchPred.ras.correct              34415                       # Number of times the RAS is the provider and the prediction is correct (Count)
system.cpu0.branchPred.ras.incorrect                0                       # Number of times the RAS is the provider and the prediction is wrong (Count)
system.cpu0.commit.commitSquashedInsts        1088928                       # The number of squashed insts skipped by commit (Count)
system.cpu0.commit.commitNonSpecStalls            270                       # The number of times commit has been forced to stall to communicate backwards (Count)
system.cpu0.commit.branchMispredicts            14272                       # The number of times a branch was mispredicted (Count)
system.cpu0.commit.numCommittedDist::samples      4319725                       # Number of insts commited each cycle (Count)
system.cpu0.commit.numCommittedDist::mean     2.333451                       # Number of insts commited each cycle (Count)
system.cpu0.commit.numCommittedDist::stdev     2.998890                       # Number of insts commited each cycle (Count)
system.cpu0.commit.numCommittedDist::underflows            0      0.00%      0.00% # Number of insts commited each cycle (Count)
system.cpu0.commit.numCommittedDist::0        1931726     44.72%     44.72% # Number of insts commited each cycle (Count)
system.cpu0.commit.numCommittedDist::1         708147     16.39%     61.11% # Number of insts commited each cycle (Count)
system.cpu0.commit.numCommittedDist::2         195510      4.53%     65.64% # Number of insts commited each cycle (Count)
system.cpu0.commit.numCommittedDist::3         312877      7.24%     72.88% # Number of insts commited each cycle (Count)
system.cpu0.commit.numCommittedDist::4         151683      3.51%     76.39% # Number of insts commited each cycle (Count)
system.cpu0.commit.numCommittedDist::5         181016      4.19%     80.58% # Number of insts commited each cycle (Count)
system.cpu0.commit.numCommittedDist::6          64126      1.48%     82.07% # Number of insts commited each cycle (Count)
system.cpu0.commit.numCommittedDist::7          51619      1.19%     83.26% # Number of insts commited each cycle (Count)
system.cpu0.commit.numCommittedDist::8         723021     16.74%    100.00% # Number of insts commited each cycle (Count)
system.cpu0.commit.numCommittedDist::overflows            0      0.00%    100.00% # Number of insts commited each cycle (Count)
system.cpu0.commit.numCommittedDist::min_value            0                       # Number of insts commited each cycle (Count)
system.cpu0.commit.numCommittedDist::max_value            8                       # Number of insts commited each cycle (Count)
system.cpu0.commit.numCommittedDist::total      4319725                       # Number of insts commited each cycle (Count)
system.cpu0.commit.amos                             0                       # Number of atomic instructions committed (Count)
system.cpu0.commit.membars                        120                       # Number of memory barriers committed (Count)
system.cpu0.commit.functionCalls                34420                       # Number of function calls committed. (Count)
system.cpu0.commit.committedInstType_0::No_OpClass        33450      0.33%      0.33% # Class of committed instruction (Count)
system.cpu0.commit.committedInstType_0::IntAlu      5714935     56.70%     57.03% # Class of committed instruction (Count)
system.cpu0.commit.committedInstType_0::IntMult         4124      0.04%     57.07% # Class of committed instruction (Count)
system.cpu0.commit.committedInstType_0::IntDiv        34738      0.34%     57.41% # Class of committed instruction (Count)
system.cpu0.commit.committedInstType_0::FloatAdd       778219      7.72%     65.13% # Class of committed instruction (Count)
system.cpu0.commit.committedInstType_0::FloatCmp            0      0.00%     65.13% # Class of committed instruction (Count)
system.cpu0.commit.committedInstType_0::FloatCvt          160      0.00%     65.14% # Class of committed instruction (Count)
system.cpu0.commit.committedInstType_0::FloatMult            0      0.00%     65.14% # Class of committed instruction (Count)
system.cpu0.commit.committedInstType_0::FloatMultAcc            0      0.00%     65.14% # Class of committed instruction (Count)
system.cpu0.commit.committedInstType_0::FloatDiv            0      0.00%     65.14% # Class of committed instruction (Count)
system.cpu0.commit.committedInstType_0::FloatMisc            0      0.00%     65.14% # Class of committed instruction (Count)
system.cpu0.commit.committedInstType_0::FloatSqrt            0      0.00%     65.14% # Class of committed instruction (Count)
system.cpu0.commit.committedInstType_0::SimdAdd         5394      0.05%     65.19% # Class of committed instruction (Count)
system.cpu0.commit.committedInstType_0::SimdAddAcc            0      0.00%     65.19% # Class of committed instruction (Count)
system.cpu0.commit.committedInstType_0::SimdAlu       309807      3.07%     68.26% # Class of committed instruction (Count)
system.cpu0.commit.committedInstType_0::SimdCmp            0      0.00%     68.26% # Class of committed instruction (Count)
system.cpu0.commit.committedInstType_0::SimdCvt        11058      0.11%     68.37% # Class of committed instruction (Count)
system.cpu0.commit.committedInstType_0::SimdMisc        64564      0.64%     69.01% # Class of committed instruction (Count)
system.cpu0.commit.committedInstType_0::SimdMult            0      0.00%     69.01% # Class of committed instruction (Count)
system.cpu0.commit.committedInstType_0::SimdMultAcc            0      0.00%     69.01% # Class of committed instruction (Count)
system.cpu0.commit.committedInstType_0::SimdMatMultAcc            0      0.00%     69.01% # Class of committed instruction (Count)
system.cpu0.commit.committedInstType_0::SimdShift          670      0.01%     69.02% # Class of committed instruction (Count)
system.cpu0.commit.committedInstType_0::SimdShiftAcc            0      0.00%     69.02% # Class of committed instruction (Count)
system.cpu0.commit.committedInstType_0::SimdDiv            0      0.00%     69.02% # Class of committed instruction (Count)
system.cpu0.commit.committedInstType_0::SimdSqrt            0      0.00%     69.02% # Class of committed instruction (Count)
system.cpu0.commit.committedInstType_0::SimdFloatAdd       349405      3.47%     72.49% # Class of committed instruction (Count)
system.cpu0.commit.committedInstType_0::SimdFloatAlu            0      0.00%     72.49% # Class of committed instruction (Count)
system.cpu0.commit.committedInstType_0::SimdFloatCmp            0      0.00%     72.49% # Class of committed instruction (Count)
system.cpu0.commit.committedInstType_0::SimdFloatCvt        95359      0.95%     73.43% # Class of committed instruction (Count)
system.cpu0.commit.committedInstType_0::SimdFloatDiv        22528      0.22%     73.66% # Class of committed instruction (Count)
system.cpu0.commit.committedInstType_0::SimdFloatMisc            0      0.00%     73.66% # Class of committed instruction (Count)
system.cpu0.commit.committedInstType_0::SimdFloatMult       319220      3.17%     76.82% # Class of committed instruction (Count)
system.cpu0.commit.committedInstType_0::SimdFloatMultAcc            0      0.00%     76.82% # Class of committed instruction (Count)
system.cpu0.commit.committedInstType_0::SimdFloatMatMultAcc            0      0.00%     76.82% # Class of committed instruction (Count)
system.cpu0.commit.committedInstType_0::SimdFloatSqrt            0      0.00%     76.82% # Class of committed instruction (Count)
system.cpu0.commit.committedInstType_0::SimdReduceAdd            0      0.00%     76.82% # Class of committed instruction (Count)
system.cpu0.commit.committedInstType_0::SimdReduceAlu            0      0.00%     76.82% # Class of committed instruction (Count)
system.cpu0.commit.committedInstType_0::SimdReduceCmp            0      0.00%     76.82% # Class of committed instruction (Count)
system.cpu0.commit.committedInstType_0::SimdFloatReduceAdd            0      0.00%     76.82% # Class of committed instruction (Count)
system.cpu0.commit.committedInstType_0::SimdFloatReduceCmp            0      0.00%     76.82% # Class of committed instruction (Count)
system.cpu0.commit.committedInstType_0::SimdAes            0      0.00%     76.82% # Class of committed instruction (Count)
system.cpu0.commit.committedInstType_0::SimdAesMix            0      0.00%     76.82% # Class of committed instruction (Count)
system.cpu0.commit.committedInstType_0::SimdSha1Hash            0      0.00%     76.82% # Class of committed instruction (Count)
system.cpu0.commit.committedInstType_0::SimdSha1Hash2            0      0.00%     76.82% # Class of committed instruction (Count)
system.cpu0.commit.committedInstType_0::SimdSha256Hash            0      0.00%     76.82% # Class of committed instruction (Count)
system.cpu0.commit.committedInstType_0::SimdSha256Hash2            0      0.00%     76.82% # Class of committed instruction (Count)
system.cpu0.commit.committedInstType_0::SimdShaSigma2            0      0.00%     76.82% # Class of committed instruction (Count)
system.cpu0.commit.committedInstType_0::SimdShaSigma3            0      0.00%     76.82% # Class of committed instruction (Count)
system.cpu0.commit.committedInstType_0::SimdPredAlu            0      0.00%     76.82% # Class of committed instruction (Count)
system.cpu0.commit.committedInstType_0::Matrix            0      0.00%     76.82% # Class of committed instruction (Count)
system.cpu0.commit.committedInstType_0::MatrixMov            0      0.00%     76.82% # Class of committed instruction (Count)
system.cpu0.commit.committedInstType_0::MatrixOP            0      0.00%     76.82% # Class of committed instruction (Count)
system.cpu0.commit.committedInstType_0::MemRead      1034228     10.26%     87.08% # Class of committed instruction (Count)
system.cpu0.commit.committedInstType_0::MemWrite       471030      4.67%     91.76% # Class of committed instruction (Count)
system.cpu0.commit.committedInstType_0::FloatMemRead       667732      6.62%     98.38% # Class of committed instruction (Count)
system.cpu0.commit.committedInstType_0::FloatMemWrite       163246      1.62%    100.00% # Class of committed instruction (Count)
system.cpu0.commit.committedInstType_0::IprAccess            0      0.00%    100.00% # Class of committed instruction (Count)
system.cpu0.commit.committedInstType_0::InstPrefetch            0      0.00%    100.00% # Class of committed instruction (Count)
system.cpu0.commit.committedInstType_0::VectorUnitStrideLoad            0      0.00%    100.00% # Class of committed instruction (Count)
system.cpu0.commit.committedInstType_0::VectorUnitStrideStore            0      0.00%    100.00% # Class of committed instruction (Count)
system.cpu0.commit.committedInstType_0::VectorUnitStrideMaskLoad            0      0.00%    100.00% # Class of committed instruction (Count)
system.cpu0.commit.committedInstType_0::VectorUnitStrideMaskStore            0      0.00%    100.00% # Class of committed instruction (Count)
system.cpu0.commit.committedInstType_0::VectorStridedLoad            0      0.00%    100.00% # Class of committed instruction (Count)
system.cpu0.commit.committedInstType_0::VectorStridedStore            0      0.00%    100.00% # Class of committed instruction (Count)
system.cpu0.commit.committedInstType_0::VectorIndexedLoad            0      0.00%    100.00% # Class of committed instruction (Count)
system.cpu0.commit.committedInstType_0::VectorIndexedStore            0      0.00%    100.00% # Class of committed instruction (Count)
system.cpu0.commit.committedInstType_0::VectorUnitStrideFaultOnlyFirstLoad            0      0.00%    100.00% # Class of committed instruction (Count)
system.cpu0.commit.committedInstType_0::VectorWholeRegisterLoad            0      0.00%    100.00% # Class of committed instruction (Count)
system.cpu0.commit.committedInstType_0::VectorWholeRegisterStore            0      0.00%    100.00% # Class of committed instruction (Count)
system.cpu0.commit.committedInstType_0::VectorIntegerArith            0      0.00%    100.00% # Class of committed instruction (Count)
system.cpu0.commit.committedInstType_0::VectorFloatArith            0      0.00%    100.00% # Class of committed instruction (Count)
system.cpu0.commit.committedInstType_0::VectorFloatConvert            0      0.00%    100.00% # Class of committed instruction (Count)
system.cpu0.commit.committedInstType_0::VectorIntegerReduce            0      0.00%    100.00% # Class of committed instruction (Count)
system.cpu0.commit.committedInstType_0::VectorFloatReduce            0      0.00%    100.00% # Class of committed instruction (Count)
system.cpu0.commit.committedInstType_0::VectorMisc            0      0.00%    100.00% # Class of committed instruction (Count)
system.cpu0.commit.committedInstType_0::VectorIntegerExtension            0      0.00%    100.00% # Class of committed instruction (Count)
system.cpu0.commit.committedInstType_0::VectorConfig            0      0.00%    100.00% # Class of committed instruction (Count)
system.cpu0.commit.committedInstType_0::total     10079867                       # Class of committed instruction (Count)
system.cpu0.commit.commitEligibleSamples       723021                       # number cycles where commit BW limit reached (Cycle)
system.cpu0.commitStats0.numInsts             5770084                       # Number of instructions committed (thread level) (Count)
system.cpu0.commitStats0.numOps              10079867                       # Number of ops (including micro ops) committed (thread level) (Count)
system.cpu0.commitStats0.numInstsNotNOP       5770084                       # Number of instructions committed excluding NOPs or prefetches (Count)
system.cpu0.commitStats0.numOpsNotNOP        10079867                       # Number of Ops (including micro ops) Simulated (Count)
system.cpu0.commitStats0.cpi                 0.806803                       # CPI: cycles per instruction (thread level) ((Cycle/Count))
system.cpu0.commitStats0.ipc                 1.239460                       # IPC: instructions per cycle (thread level) ((Count/Cycle))
system.cpu0.commitStats0.numMemRefs           2336236                       # Number of memory references committed (Count)
system.cpu0.commitStats0.numFpInsts           3097087                       # Number of float instructions (Count)
system.cpu0.commitStats0.numIntInsts          7834513                       # Number of integer instructions (Count)
system.cpu0.commitStats0.numLoadInsts         1701960                       # Number of load instructions (Count)
system.cpu0.commitStats0.numStoreInsts         634276                       # Number of store instructions (Count)
system.cpu0.commitStats0.numVecInsts                0                       # Number of vector instructions (Count)
system.cpu0.commitStats0.committedInstType::No_OpClass        33450      0.33%      0.33% # Class of committed instruction. (Count)
system.cpu0.commitStats0.committedInstType::IntAlu      5714935     56.70%     57.03% # Class of committed instruction. (Count)
system.cpu0.commitStats0.committedInstType::IntMult         4124      0.04%     57.07% # Class of committed instruction. (Count)
system.cpu0.commitStats0.committedInstType::IntDiv        34738      0.34%     57.41% # Class of committed instruction. (Count)
system.cpu0.commitStats0.committedInstType::FloatAdd       778219      7.72%     65.13% # Class of committed instruction. (Count)
system.cpu0.commitStats0.committedInstType::FloatCmp            0      0.00%     65.13% # Class of committed instruction. (Count)
system.cpu0.commitStats0.committedInstType::FloatCvt          160      0.00%     65.14% # Class of committed instruction. (Count)
system.cpu0.commitStats0.committedInstType::FloatMult            0      0.00%     65.14% # Class of committed instruction. (Count)
system.cpu0.commitStats0.committedInstType::FloatMultAcc            0      0.00%     65.14% # Class of committed instruction. (Count)
system.cpu0.commitStats0.committedInstType::FloatDiv            0      0.00%     65.14% # Class of committed instruction. (Count)
system.cpu0.commitStats0.committedInstType::FloatMisc            0      0.00%     65.14% # Class of committed instruction. (Count)
system.cpu0.commitStats0.committedInstType::FloatSqrt            0      0.00%     65.14% # Class of committed instruction. (Count)
system.cpu0.commitStats0.committedInstType::SimdAdd         5394      0.05%     65.19% # Class of committed instruction. (Count)
system.cpu0.commitStats0.committedInstType::SimdAddAcc            0      0.00%     65.19% # Class of committed instruction. (Count)
system.cpu0.commitStats0.committedInstType::SimdAlu       309807      3.07%     68.26% # Class of committed instruction. (Count)
system.cpu0.commitStats0.committedInstType::SimdCmp            0      0.00%     68.26% # Class of committed instruction. (Count)
system.cpu0.commitStats0.committedInstType::SimdCvt        11058      0.11%     68.37% # Class of committed instruction. (Count)
system.cpu0.commitStats0.committedInstType::SimdMisc        64564      0.64%     69.01% # Class of committed instruction. (Count)
system.cpu0.commitStats0.committedInstType::SimdMult            0      0.00%     69.01% # Class of committed instruction. (Count)
system.cpu0.commitStats0.committedInstType::SimdMultAcc            0      0.00%     69.01% # Class of committed instruction. (Count)
system.cpu0.commitStats0.committedInstType::SimdMatMultAcc            0      0.00%     69.01% # Class of committed instruction. (Count)
system.cpu0.commitStats0.committedInstType::SimdShift          670      0.01%     69.02% # Class of committed instruction. (Count)
system.cpu0.commitStats0.committedInstType::SimdShiftAcc            0      0.00%     69.02% # Class of committed instruction. (Count)
system.cpu0.commitStats0.committedInstType::SimdDiv            0      0.00%     69.02% # Class of committed instruction. (Count)
system.cpu0.commitStats0.committedInstType::SimdSqrt            0      0.00%     69.02% # Class of committed instruction. (Count)
system.cpu0.commitStats0.committedInstType::SimdFloatAdd       349405      3.47%     72.49% # Class of committed instruction. (Count)
system.cpu0.commitStats0.committedInstType::SimdFloatAlu            0      0.00%     72.49% # Class of committed instruction. (Count)
system.cpu0.commitStats0.committedInstType::SimdFloatCmp            0      0.00%     72.49% # Class of committed instruction. (Count)
system.cpu0.commitStats0.committedInstType::SimdFloatCvt        95359      0.95%     73.43% # Class of committed instruction. (Count)
system.cpu0.commitStats0.committedInstType::SimdFloatDiv        22528      0.22%     73.66% # Class of committed instruction. (Count)
system.cpu0.commitStats0.committedInstType::SimdFloatMisc            0      0.00%     73.66% # Class of committed instruction. (Count)
system.cpu0.commitStats0.committedInstType::SimdFloatMult       319220      3.17%     76.82% # Class of committed instruction. (Count)
system.cpu0.commitStats0.committedInstType::SimdFloatMultAcc            0      0.00%     76.82% # Class of committed instruction. (Count)
system.cpu0.commitStats0.committedInstType::SimdFloatMatMultAcc            0      0.00%     76.82% # Class of committed instruction. (Count)
system.cpu0.commitStats0.committedInstType::SimdFloatSqrt            0      0.00%     76.82% # Class of committed instruction. (Count)
system.cpu0.commitStats0.committedInstType::SimdReduceAdd            0      0.00%     76.82% # Class of committed instruction. (Count)
system.cpu0.commitStats0.committedInstType::SimdReduceAlu            0      0.00%     76.82% # Class of committed instruction. (Count)
system.cpu0.commitStats0.committedInstType::SimdReduceCmp            0      0.00%     76.82% # Class of committed instruction. (Count)
system.cpu0.commitStats0.committedInstType::SimdFloatReduceAdd            0      0.00%     76.82% # Class of committed instruction. (Count)
system.cpu0.commitStats0.committedInstType::SimdFloatReduceCmp            0      0.00%     76.82% # Class of committed instruction. (Count)
system.cpu0.commitStats0.committedInstType::SimdAes            0      0.00%     76.82% # Class of committed instruction. (Count)
system.cpu0.commitStats0.committedInstType::SimdAesMix            0      0.00%     76.82% # Class of committed instruction. (Count)
system.cpu0.commitStats0.committedInstType::SimdSha1Hash            0      0.00%     76.82% # Class of committed instruction. (Count)
system.cpu0.commitStats0.committedInstType::SimdSha1Hash2            0      0.00%     76.82% # Class of committed instruction. (Count)
system.cpu0.commitStats0.committedInstType::SimdSha256Hash            0      0.00%     76.82% # Class of committed instruction. (Count)
system.cpu0.commitStats0.committedInstType::SimdSha256Hash2            0      0.00%     76.82% # Class of committed instruction. (Count)
system.cpu0.commitStats0.committedInstType::SimdShaSigma2            0      0.00%     76.82% # Class of committed instruction. (Count)
system.cpu0.commitStats0.committedInstType::SimdShaSigma3            0      0.00%     76.82% # Class of committed instruction. (Count)
system.cpu0.commitStats0.committedInstType::SimdPredAlu            0      0.00%     76.82% # Class of committed instruction. (Count)
system.cpu0.commitStats0.committedInstType::Matrix            0      0.00%     76.82% # Class of committed instruction. (Count)
system.cpu0.commitStats0.committedInstType::MatrixMov            0      0.00%     76.82% # Class of committed instruction. (Count)
system.cpu0.commitStats0.committedInstType::MatrixOP            0      0.00%     76.82% # Class of committed instruction. (Count)
system.cpu0.commitStats0.committedInstType::MemRead      1034228     10.26%     87.08% # Class of committed instruction. (Count)
system.cpu0.commitStats0.committedInstType::MemWrite       471030      4.67%     91.76% # Class of committed instruction. (Count)
system.cpu0.commitStats0.committedInstType::FloatMemRead       667732      6.62%     98.38% # Class of committed instruction. (Count)
system.cpu0.commitStats0.committedInstType::FloatMemWrite       163246      1.62%    100.00% # Class of committed instruction. (Count)
system.cpu0.commitStats0.committedInstType::IprAccess            0      0.00%    100.00% # Class of committed instruction. (Count)
system.cpu0.commitStats0.committedInstType::InstPrefetch            0      0.00%    100.00% # Class of committed instruction. (Count)
system.cpu0.commitStats0.committedInstType::VectorUnitStrideLoad            0      0.00%    100.00% # Class of committed instruction. (Count)
system.cpu0.commitStats0.committedInstType::VectorUnitStrideStore            0      0.00%    100.00% # Class of committed instruction. (Count)
system.cpu0.commitStats0.committedInstType::VectorUnitStrideMaskLoad            0      0.00%    100.00% # Class of committed instruction. (Count)
system.cpu0.commitStats0.committedInstType::VectorUnitStrideMaskStore            0      0.00%    100.00% # Class of committed instruction. (Count)
system.cpu0.commitStats0.committedInstType::VectorStridedLoad            0      0.00%    100.00% # Class of committed instruction. (Count)
system.cpu0.commitStats0.committedInstType::VectorStridedStore            0      0.00%    100.00% # Class of committed instruction. (Count)
system.cpu0.commitStats0.committedInstType::VectorIndexedLoad            0      0.00%    100.00% # Class of committed instruction. (Count)
system.cpu0.commitStats0.committedInstType::VectorIndexedStore            0      0.00%    100.00% # Class of committed instruction. (Count)
system.cpu0.commitStats0.committedInstType::VectorUnitStrideFaultOnlyFirstLoad            0      0.00%    100.00% # Class of committed instruction. (Count)
system.cpu0.commitStats0.committedInstType::VectorWholeRegisterLoad            0      0.00%    100.00% # Class of committed instruction. (Count)
system.cpu0.commitStats0.committedInstType::VectorWholeRegisterStore            0      0.00%    100.00% # Class of committed instruction. (Count)
system.cpu0.commitStats0.committedInstType::VectorIntegerArith            0      0.00%    100.00% # Class of committed instruction. (Count)
system.cpu0.commitStats0.committedInstType::VectorFloatArith            0      0.00%    100.00% # Class of committed instruction. (Count)
system.cpu0.commitStats0.committedInstType::VectorFloatConvert            0      0.00%    100.00% # Class of committed instruction. (Count)
system.cpu0.commitStats0.committedInstType::VectorIntegerReduce            0      0.00%    100.00% # Class of committed instruction. (Count)
system.cpu0.commitStats0.committedInstType::VectorFloatReduce            0      0.00%    100.00% # Class of committed instruction. (Count)
system.cpu0.commitStats0.committedInstType::VectorMisc            0      0.00%    100.00% # Class of committed instruction. (Count)
system.cpu0.commitStats0.committedInstType::VectorIntegerExtension            0      0.00%    100.00% # Class of committed instruction. (Count)
system.cpu0.commitStats0.committedInstType::VectorConfig            0      0.00%    100.00% # Class of committed instruction. (Count)
system.cpu0.commitStats0.committedInstType::total     10079867                       # Class of committed instruction. (Count)
system.cpu0.commitStats0.committedControl::IsControl       660671                       # Class of control type instructions committed (Count)
system.cpu0.commitStats0.committedControl::IsDirectControl       599565                       # Class of control type instructions committed (Count)
system.cpu0.commitStats0.committedControl::IsIndirectControl        61057                       # Class of control type instructions committed (Count)
system.cpu0.commitStats0.committedControl::IsCondControl       485310                       # Class of control type instructions committed (Count)
system.cpu0.commitStats0.committedControl::IsUncondControl       175312                       # Class of control type instructions committed (Count)
system.cpu0.commitStats0.committedControl::IsCall        34420                       # Class of control type instructions committed (Count)
system.cpu0.commitStats0.committedControl::IsReturn        34415                       # Class of control type instructions committed (Count)
system.cpu0.decode.idleCycles                  691380                       # Number of cycles decode is idle (Cycle)
system.cpu0.decode.blockedCycles              2132899                       # Number of cycles decode is blocked (Cycle)
system.cpu0.decode.runCycles                  1297905                       # Number of cycles decode is running (Cycle)
system.cpu0.decode.unblockCycles               328250                       # Number of cycles decode is unblocking (Cycle)
system.cpu0.decode.squashCycles                 14951                       # Number of cycles decode is squashing (Cycle)
system.cpu0.decode.branchResolved              363944                       # Number of times decode resolved a branch (Count)
system.cpu0.decode.branchMispred                  799                       # Number of times decode detected a branch misprediction (Count)
system.cpu0.decode.decodedInsts              11364140                       # Number of instructions handled by decode (Count)
system.cpu0.decode.squashedInsts                 3975                       # Number of squashed instructions handled by decode (Count)
system.cpu0.executeStats0.numInsts           10724820                       # Number of executed instructions (Count)
system.cpu0.executeStats0.numNop                    0                       # Number of nop insts executed (Count)
system.cpu0.executeStats0.numBranches          686711                       # Number of branches executed (Count)
system.cpu0.executeStats0.numLoadInsts        1856971                       # Number of load instructions executed (Count)
system.cpu0.executeStats0.numStoreInsts        671860                       # Number of stores executed (Count)
system.cpu0.executeStats0.instRate           2.303777                       # Inst execution rate ((Count/Cycle))
system.cpu0.executeStats0.numCCRegReads       3461076                       # Number of times the CC registers were read (Count)
system.cpu0.executeStats0.numCCRegWrites      3219452                       # Number of times the CC registers were written (Count)
system.cpu0.executeStats0.numFpRegReads       3833154                       # Number of times the floating registers were read (Count)
[...]
system.ruby.network.data_traffic_distribution.n3.n7            0                       (Unspecified)
system.ruby.network.data_traffic_distribution.n3.n8            0                       (Unspecified)
system.ruby.network.data_traffic_distribution.n3.n9            0                       (Unspecified)
system.ruby.network.data_traffic_distribution.n4.n0        22259                       (Unspecified)
system.ruby.network.data_traffic_distribution.n4.n1            0                       (Unspecified)
system.ruby.network.data_traffic_distribution.n4.n10            0                       (Unspecified)
system.ruby.network.data_traffic_distribution.n4.n11            0                       (Unspecified)
system.ruby.network.data_traffic_distribution.n4.n12            0                       (Unspecified)
system.ruby.network.data_traffic_distribution.n4.n13            0                       (Unspecified)
system.ruby.network.data_traffic_distribution.n4.n14            0                       (Unspecified)
system.ruby.network.data_traffic_distribution.n4.n15            0                       (Unspecified)
system.ruby.network.data_traffic_distribution.n4.n2            0                       (Unspecified)
system.ruby.network.data_traffic_distribution.n4.n3            0                       (Unspecified)
system.ruby.network.data_traffic_distribution.n4.n4            0                       (Unspecified)
system.ruby.network.data_traffic_distribution.n4.n5            0                       (Unspecified)
system.ruby.network.data_traffic_distribution.n4.n6            0                       (Unspecified)
system.ruby.network.data_traffic_distribution.n4.n7            0                       (Unspecified)
system.ruby.network.data_traffic_distribution.n4.n8            0                       (Unspecified)
system.ruby.network.data_traffic_distribution.n4.n9            0                       (Unspecified)
system.ruby.network.data_traffic_distribution.n5.n0        21619                       (Unspecified)
system.ruby.network.data_traffic_distribution.n5.n1            0                       (Unspecified)
system.ruby.network.data_traffic_distribution.n5.n10            0                       (Unspecified)
system.ruby.network.data_traffic_distribution.n5.n11            0                       (Unspecified)
system.ruby.network.data_traffic_distribution.n5.n12            0                       (Unspecified)
system.ruby.network.data_traffic_distribution.n5.n13            0                       (Unspecified)
system.ruby.network.data_traffic_distribution.n5.n14            0                       (Unspecified)
system.ruby.network.data_traffic_distribution.n5.n15            0                       (Unspecified)
system.ruby.network.data_traffic_distribution.n5.n2            0                       (Unspecified)
system.ruby.network.data_traffic_distribution.n5.n3            0                       (Unspecified)
system.ruby.network.data_traffic_distribution.n5.n4            0                       (Unspecified)
system.ruby.network.data_traffic_distribution.n5.n5            0                       (Unspecified)
system.ruby.network.data_traffic_distribution.n5.n6            0                       (Unspecified)
system.ruby.network.data_traffic_distribution.n5.n7            0                       (Unspecified)
system.ruby.network.data_traffic_distribution.n5.n8            0                       (Unspecified)
system.ruby.network.data_traffic_distribution.n5.n9            0                       (Unspecified)
system.ruby.network.data_traffic_distribution.n6.n0        21911                       (Unspecified)
system.ruby.network.data_traffic_distribution.n6.n1            0                       (Unspecified)
system.ruby.network.data_traffic_distribution.n6.n10            0                       (Unspecified)
system.ruby.network.data_traffic_distribution.n6.n11            0                       (Unspecified)
system.ruby.network.data_traffic_distribution.n6.n12            0                       (Unspecified)
system.ruby.network.data_traffic_distribution.n6.n13            0                       (Unspecified)
system.ruby.network.data_traffic_distribution.n6.n14            0                       (Unspecified)
system.ruby.network.data_traffic_distribution.n6.n15            0                       (Unspecified)
system.ruby.network.data_traffic_distribution.n6.n2            0                       (Unspecified)
system.ruby.network.data_traffic_distribution.n6.n3            0                       (Unspecified)
system.ruby.network.data_traffic_distribution.n6.n4            0                       (Unspecified)
system.ruby.network.data_traffic_distribution.n6.n5            0                       (Unspecified)
system.ruby.network.data_traffic_distribution.n6.n6            0                       (Unspecified)
system.ruby.network.data_traffic_distribution.n6.n7            0                       (Unspecified)
system.ruby.network.data_traffic_distribution.n6.n8            0                       (Unspecified)
system.ruby.network.data_traffic_distribution.n6.n9            0                       (Unspecified)
system.ruby.network.data_traffic_distribution.n7.n0        21980                       (Unspecified)
system.ruby.network.data_traffic_distribution.n7.n1            0                       (Unspecified)
system.ruby.network.data_traffic_distribution.n7.n10            0                       (Unspecified)
system.ruby.network.data_traffic_distribution.n7.n11            0                       (Unspecified)
system.ruby.network.data_traffic_distribution.n7.n12            0                       (Unspecified)
system.ruby.network.data_traffic_distribution.n7.n13            0                       (Unspecified)
system.ruby.network.data_traffic_distribution.n7.n14            0                       (Unspecified)
system.ruby.network.data_traffic_distribution.n7.n15            0                       (Unspecified)
system.ruby.network.data_traffic_distribution.n7.n2            0                       (Unspecified)
system.ruby.network.data_traffic_distribution.n7.n3            0                       (Unspecified)
system.ruby.network.data_traffic_distribution.n7.n4            0                       (Unspecified)
system.ruby.network.data_traffic_distribution.n7.n5            0                       (Unspecified)
system.ruby.network.data_traffic_distribution.n7.n6            0                       (Unspecified)
system.ruby.network.data_traffic_distribution.n7.n7            0                       (Unspecified)
system.ruby.network.data_traffic_distribution.n7.n8            0                       (Unspecified)
system.ruby.network.data_traffic_distribution.n7.n9            0                       (Unspecified)
system.ruby.network.data_traffic_distribution.n8.n0        21743                       (Unspecified)
system.ruby.network.data_traffic_distribution.n8.n1            0                       (Unspecified)
system.ruby.network.data_traffic_distribution.n8.n10            0                       (Unspecified)
system.ruby.network.data_traffic_distribution.n8.n11            0                       (Unspecified)
system.ruby.network.data_traffic_distribution.n8.n12            0                       (Unspecified)
system.ruby.network.data_traffic_distribution.n8.n13            0                       (Unspecified)
system.ruby.network.data_traffic_distribution.n8.n14            0                       (Unspecified)
system.ruby.network.data_traffic_distribution.n8.n15            0                       (Unspecified)
system.ruby.network.data_traffic_distribution.n8.n2            0                       (Unspecified)
system.ruby.network.data_traffic_distribution.n8.n3            0                       (Unspecified)
system.ruby.network.data_traffic_distribution.n8.n4            0                       (Unspecified)
system.ruby.network.data_traffic_distribution.n8.n5            0                       (Unspecified)
system.ruby.network.data_traffic_distribution.n8.n6            0                       (Unspecified)
system.ruby.network.data_traffic_distribution.n8.n7            0                       (Unspecified)
system.ruby.network.data_traffic_distribution.n8.n8            0                       (Unspecified)
system.ruby.network.data_traffic_distribution.n8.n9            0                       (Unspecified)
system.ruby.network.data_traffic_distribution.n9.n0        21562                       (Unspecified)
system.ruby.network.data_traffic_distribution.n9.n1            0                       (Unspecified)
system.ruby.network.data_traffic_distribution.n9.n10            0                       (Unspecified)
system.ruby.network.data_traffic_distribution.n9.n11            0                       (Unspecified)
system.ruby.network.data_traffic_distribution.n9.n12            0                       (Unspecified)
system.ruby.network.data_traffic_distribution.n9.n13            0                       (Unspecified)
system.ruby.network.data_traffic_distribution.n9.n14            0                       (Unspecified)
system.ruby.network.data_traffic_distribution.n9.n15            0                       (Unspecified)
system.ruby.network.data_traffic_distribution.n9.n2            0                       (Unspecified)
system.ruby.network.data_traffic_distribution.n9.n3            0                       (Unspecified)
system.ruby.network.data_traffic_distribution.n9.n4            0                       (Unspecified)
system.ruby.network.data_traffic_distribution.n9.n5            0                       (Unspecified)
system.ruby.network.data_traffic_distribution.n9.n6            0                       (Unspecified)
system.ruby.network.data_traffic_distribution.n9.n7            0                       (Unspecified)
system.ruby.network.data_traffic_distribution.n9.n8            0                       (Unspecified)
system.ruby.network.data_traffic_distribution.n9.n9            0                       (Unspecified)
system.ruby.network.ext_in_link_utilization      4554713                       (Unspecified)
system.ruby.network.ext_out_link_utilization      4554713                       (Unspecified)
system.ruby.network.flit_network_latency |  8584598500                       | 36221422500                       |  1563324500                       (Unspecified)
system.ruby.network.flit_queueing_latency |  1269893000                       |  7211637500                       |   151812000                       (Unspecified)
system.ruby.network.flits_injected       |     1016372     22.31%     22.31% |     3234717     71.02%     93.33% |      303624      6.67%    100.00% (Unspecified)
system.ruby.network.flits_injected::total      4554713                       (Unspecified)
system.ruby.network.flits_received       |     1016372     22.31%     22.31% |     3234717     71.02%     93.33% |      303624      6.67%    100.00% (Unspecified)
system.ruby.network.flits_received::total      4554713                       (Unspecified)
system.ruby.network.int_link_utilization     13691367                       (Unspecified)
system.ruby.network.packet_network_latency |  5788435500                       | 11328801500                       |  1563324500                       (Unspecified)
system.ruby.network.packet_queueing_latency |   995057000                       |  2399161500                       |   151812000                       (Unspecified)
system.ruby.network.packets_injected     |      791804     36.46%     36.46% |     1076325     49.56%     86.02% |      303624     13.98%    100.00% (Unspecified)
system.ruby.network.packets_injected::total      2171753                       (Unspecified)
system.ruby.network.packets_received     |      791804     36.46%     36.46% |     1076325     49.56%     86.02% |      303624     13.98%    100.00% (Unspecified)
system.ruby.network.packets_received::total      2171753                       (Unspecified)
system.ruby.network.routers00.buffer_reads      4554713                       (Unspecified)
system.ruby.network.routers00.buffer_writes      4554713                       (Unspecified)
system.ruby.network.routers00.crossbar_activity      4554713                       (Unspecified)
system.ruby.network.routers00.sw_input_arbiter_activity      5204424                       (Unspecified)
system.ruby.network.routers00.sw_output_arbiter_activity      4554713                       (Unspecified)
system.ruby.network.routers01.buffer_reads      2148475                       (Unspecified)
system.ruby.network.routers01.buffer_writes      2148475                       (Unspecified)
system.ruby.network.routers01.crossbar_activity      2148475                       (Unspecified)
system.ruby.network.routers01.sw_input_arbiter_activity      2171333                       (Unspecified)
system.ruby.network.routers01.sw_output_arbiter_activity      2148475                       (Unspecified)
system.ruby.network.routers02.buffer_reads      1437771                       (Unspecified)
system.ruby.network.routers02.buffer_writes      1437771                       (Unspecified)
system.ruby.network.routers02.crossbar_activity      1437771                       (Unspecified)
system.ruby.network.routers02.sw_input_arbiter_activity      1450342                       (Unspecified)
system.ruby.network.routers02.sw_output_arbiter_activity      1437771                       (Unspecified)
system.ruby.network.routers03.buffer_reads       719066                       (Unspecified)
system.ruby.network.routers03.buffer_writes       719066                       (Unspecified)
system.ruby.network.routers03.crossbar_activity       719066                       (Unspecified)
system.ruby.network.routers03.sw_input_arbiter_activity       721330                       (Unspecified)
system.ruby.network.routers03.sw_output_arbiter_activity       719066                       (Unspecified)
system.ruby.network.routers04.buffer_reads      2126613                       (Unspecified)
system.ruby.network.routers04.buffer_writes      2126613                       (Unspecified)
system.ruby.network.routers04.crossbar_activity      2126613                       (Unspecified)
system.ruby.network.routers04.sw_input_arbiter_activity      2562682                       (Unspecified)
system.ruby.network.routers04.sw_output_arbiter_activity      2126613                       (Unspecified)
system.ruby.network.routers05.buffer_reads       851818                       (Unspecified)
system.ruby.network.routers05.buffer_writes       851818                       (Unspecified)
system.ruby.network.routers05.crossbar_activity       851818                       (Unspecified)
system.ruby.network.routers05.sw_input_arbiter_activity       874647                       (Unspecified)
system.ruby.network.routers05.sw_output_arbiter_activity       851818                       (Unspecified)
system.ruby.network.routers06.buffer_reads       717952                       (Unspecified)
system.ruby.network.routers06.buffer_writes       717952                       (Unspecified)
system.ruby.network.routers06.crossbar_activity       717952                       (Unspecified)
system.ruby.network.routers06.sw_input_arbiter_activity       731834                       (Unspecified)
system.ruby.network.routers06.sw_output_arbiter_activity       717952                       (Unspecified)
system.ruby.network.routers07.buffer_reads       571689                       (Unspecified)
system.ruby.network.routers07.buffer_writes       571689                       (Unspecified)
system.ruby.network.routers07.crossbar_activity       571689                       (Unspecified)
system.ruby.network.routers07.sw_input_arbiter_activity       573886                       (Unspecified)
system.ruby.network.routers07.sw_output_arbiter_activity       571689                       (Unspecified)
system.ruby.network.routers08.buffer_reads      1416591                       (Unspecified)
system.ruby.network.routers08.buffer_writes      1416591                       (Unspecified)
system.ruby.network.routers08.crossbar_activity      1416591                       (Unspecified)
system.ruby.network.routers08.sw_input_arbiter_activity      1658088                       (Unspecified)
system.ruby.network.routers08.sw_output_arbiter_activity      1416591                       (Unspecified)
system.ruby.network.routers09.buffer_reads       702485                       (Unspecified)
system.ruby.network.routers09.buffer_writes       702485                       (Unspecified)
system.ruby.network.routers09.crossbar_activity       702485                       (Unspecified)
system.ruby.network.routers09.sw_input_arbiter_activity       725041                       (Unspecified)
system.ruby.network.routers09.sw_output_arbiter_activity       702485                       (Unspecified)
system.ruby.network.routers10.buffer_reads       567883                       (Unspecified)
system.ruby.network.routers10.buffer_writes       567883                       (Unspecified)
system.ruby.network.routers10.crossbar_activity       567883                       (Unspecified)
system.ruby.network.routers10.sw_input_arbiter_activity       580855                       (Unspecified)
system.ruby.network.routers10.sw_output_arbiter_activity       567883                       (Unspecified)
system.ruby.network.routers11.buffer_reads       424304                       (Unspecified)
system.ruby.network.routers11.buffer_writes       424304                       (Unspecified)
system.ruby.network.routers11.crossbar_activity       424304                       (Unspecified)
system.ruby.network.routers11.sw_input_arbiter_activity       426100                       (Unspecified)
system.ruby.network.routers11.sw_output_arbiter_activity       424304                       (Unspecified)
system.ruby.network.routers12.buffer_reads       710457                       (Unspecified)
system.ruby.network.routers12.buffer_writes       710457                       (Unspecified)
system.ruby.network.routers12.crossbar_activity       710457                       (Unspecified)
system.ruby.network.routers12.sw_input_arbiter_activity       743639                       (Unspecified)
system.ruby.network.routers12.sw_output_arbiter_activity       710457                       (Unspecified)
system.ruby.network.routers13.buffer_reads       575955                       (Unspecified)
system.ruby.network.routers13.buffer_writes       575955                       (Unspecified)
system.ruby.network.routers13.crossbar_activity       575955                       (Unspecified)
system.ruby.network.routers13.sw_input_arbiter_activity       601422                       (Unspecified)
system.ruby.network.routers13.sw_output_arbiter_activity       575955                       (Unspecified)
system.ruby.network.routers14.buffer_reads       431583                       (Unspecified)
system.ruby.network.routers14.buffer_writes       431583                       (Unspecified)
system.ruby.network.routers14.crossbar_activity       431583                       (Unspecified)
system.ruby.network.routers14.sw_input_arbiter_activity       446207                       (Unspecified)
system.ruby.network.routers14.sw_output_arbiter_activity       431583                       (Unspecified)
system.ruby.network.routers15.buffer_reads       288725                       (Unspecified)
system.ruby.network.routers15.buffer_writes       288725                       (Unspecified)
system.ruby.network.routers15.crossbar_activity       288725                       (Unspecified)
system.ruby.network.routers15.sw_input_arbiter_activity       290648                       (Unspecified)
system.ruby.network.routers15.sw_output_arbiter_activity       288725                       (Unspecified)

---------- End Simulation Statistics   ----------
